Circuit: * C:\Users\hp\Documents\LTspiceXVII\251 Lab05\Draft1.asc

.OP point found by inspection.

Date: Tue Nov 21 12:01:21 2023
Total elapsed time: 0.229 seconds.

tnom = 27
temp = 27
method = modified trap
totiter = 10094
traniter = 10094
tranpoints = 5018
accept = 5018
rejected = 0
matrix size = 3
fillins = 0
solver = Normal
Matrix Compiler1:       5 opcodes  0.0/[0.0]/0.0
Matrix Compiler2: 163 bytes object code size  0.0/0.0/[0.0]

