Circuit: * C:\Users\hp\Documents\LTspiceXVII\251 Lab05\Draft4.asc

Direct Newton iteration for .op point succeeded.

Date: Tue Nov 21 12:37:54 2023
Total elapsed time: 1.746 seconds.

tnom = 27
temp = 27
method = modified trap
totiter = 100053
traniter = 100038
tranpoints = 50020
accept = 50019
rejected = 1
matrix size = 11
fillins = 2
solver = Normal
Matrix Compiler1: 552 bytes object code size  0.2/0.1/[0.1]
Matrix Compiler2: 1.01 KB object code size  0.1/0.1/[0.1]

