Circuit: * C:\Users\hp\Documents\LTspiceXVII\251 Lab05\ClassTasks\p02 Vct.asc


Date: Mon Nov 27 23:27:19 2023
Total elapsed time: 0.060 seconds.

tnom = 27
temp = 27
method = trap
totiter = 215
traniter = 0
tranpoints = 0
accept = 0
rejected = 0
matrix size = 3
fillins = 0
solver = Normal
Matrix Compiler1: 86 bytes object code size  0.0/0.0/[0.0]
Matrix Compiler2:      15 opcodes  0.0/[0.0]/0.0

