Circuit: * C:\Users\hp\Documents\LTspiceXVII\251 Lab05\p04InvertingSummingAmp.asc

Direct Newton iteration for .op point succeeded.

Date: Tue Nov 21 12:59:38 2023
Total elapsed time: 1.053 seconds.

tnom = 27
temp = 27
method = modified trap
totiter = 200216
traniter = 200203
tranpoints = 100028
accept = 100028
rejected = 0
matrix size = 11
fillins = 4
solver = Normal
Matrix Compiler1: 628 bytes object code size  0.1/0.1/[0.1]
Matrix Compiler2: 1.04 KB object code size  0.1/0.1/[0.1]

