Circuit: * C:\Users\hp\Documents\LTspiceXVII\Draft3.asc


Date: Wed Aug 23 13:08:07 2023
Total elapsed time: 0.084 seconds.

tnom = 27
temp = 27
method = trap
totiter = 163
traniter = 0
tranpoints = 0
accept = 0
rejected = 0
matrix size = 6
fillins = 0
solver = Normal
Matrix Compiler1: 164 bytes object code size  0.2/0.1/[0.1]
Matrix Compiler2: off  [0.2]/0.2/0.2

