Circuit: * C:\Users\hp\Documents\LTspiceXVII\Draft2.asc

.OP point found by inspection.

Date: Wed Aug 23 15:37:27 2023
Total elapsed time: 0.165 seconds.

tnom = 27
temp = 27
method = modified trap
totiter = 10034
traniter = 10034
tranpoints = 5018
accept = 5018
rejected = 0
matrix size = 5
fillins = 3
solver = Normal
Matrix Compiler1: 342 bytes object code size  0.0/0.1/[0.0]
Matrix Compiler2: 403 bytes object code size  0.0/0.1/[0.0]

