Circuit: * C:\Users\hp\Documents\LTspiceXVII\Draft1.asc

Direct Newton iteration for .op point succeeded.

Date: Wed Aug 23 15:40:30 2023
Total elapsed time: 0.035 seconds.

tnom = 27
temp = 27
method = trap
totiter = 3
traniter = 0
tranpoints = 0
accept = 0
rejected = 0
matrix size = 7
fillins = 1
solver = Normal
Matrix Compiler1: 250 bytes object code size
Matrix Compiler2: 467 bytes object code size
