Circuit: * C:\Users\hp\Documents\LTspiceXVII\Lab05Circuit02.asc


Date: Wed Aug 23 13:00:06 2023
Total elapsed time: 0.059 seconds.

tnom = 27
temp = 27
method = trap
totiter = 163
traniter = 0
tranpoints = 0
accept = 0
rejected = 0
matrix size = 5
fillins = 0
solver = Normal
Matrix Compiler1: 132 bytes object code size  0.1/0.1/[0.0]
Matrix Compiler2: off  [0.1]/0.1/0.1

