Circuit: * C:\Users\hp\Documents\LTspiceXVII\Lab05Circuit04.asc


Date: Wed Aug 23 13:40:57 2023
Total elapsed time: 0.075 seconds.

tnom = 27
temp = 27
method = trap
totiter = 203
traniter = 0
tranpoints = 0
accept = 0
rejected = 0
matrix size = 10
fillins = 3
solver = Normal
Matrix Compiler1: 484 bytes object code size  0.5/0.3/[0.3]
Matrix Compiler2: off  [0.3]/0.4/0.3

