Circuit: * C:\Users\hp\Documents\LTspiceXVII\251 Lab05\HomeTasks\Task01.asc

.OP point found by inspection.

Date: Mon Nov 27 21:46:46 2023
Total elapsed time: 0.144 seconds.

tnom = 27
temp = 27
method = modified trap
totiter = 14048
traniter = 14048
tranpoints = 7018
accept = 7018
rejected = 0
matrix size = 4
fillins = 0
solver = Normal
Matrix Compiler1: 118 bytes object code size  0.0/0.0/[0.0]
Matrix Compiler2: 282 bytes object code size  0.0/0.0/[0.0]

