Circuit: * C:\Users\hp\Documents\LTspiceXVII\251 Lab05\HomeTasks\Task01VCT.asc


Date: Mon Nov 27 21:56:59 2023
Total elapsed time: 0.054 seconds.

tnom = 27
temp = 27
method = trap
totiter = 187
traniter = 0
tranpoints = 0
accept = 0
rejected = 0
matrix size = 4
fillins = 0
solver = Normal
Matrix Compiler1: 190 bytes object code size  0.1/0.0/[0.0]
Matrix Compiler2: 264 bytes object code size  0.0/0.1/[0.0]

