Circuit: * C:\Users\hp\Documents\LTspiceXVII\251 Lab05\HomeTasks\Task05 expo.asc


Date: Mon Nov 27 23:17:30 2023
Total elapsed time: 0.146 seconds.

tnom = 27
temp = 27
method = trap
totiter = 3015
traniter = 0
tranpoints = 0
accept = 0
rejected = 0
matrix size = 11
fillins = 1
solver = Normal
Matrix Compiler1: 494 bytes object code size  0.2/0.1/[0.1]
Matrix Compiler2: 1023 bytes object code size  0.1/0.1/[0.1]

