Circuit: * C:\Users\hp\Documents\LTspiceXVII\251 Lab06\Task02.asc

.OP point found by inspection.
.step vbb=0
.step vbb=1
.step vbb=2
.step vbb=3
.step vbb=4
.step vbb=5

Date: Tue Nov 28 13:27:57 2023
Total elapsed time: 0.124 seconds.

tnom = 27
temp = 27
method = trap
totiter = 2453
traniter = 0
tranpoints = 0
accept = 0
rejected = 0
matrix size = 5
fillins = 0
solver = Normal
Matrix Compiler1: 132 bytes object code size  0.1/0.0/[0.0]
Matrix Compiler2: off  [0.0]/0.0/0.1

