Circuit: * C:\CODE\TahmidRaven\UNI\CSE251\251 Lab06\Task03.asc

.OP point found by inspection.
.step vbb=0
.step vbb=1
.step vbb=2
.step vbb=3
.step vbb=4
.step vbb=5

Date: Sun Dec 17 19:05:06 2023
Total elapsed time: 0.120 seconds.

tnom = 27
temp = 27
method = trap
totiter = 2453
traniter = 0
tranpoints = 0
accept = 0
rejected = 0
matrix size = 5
fillins = 0
solver = Normal
Matrix Compiler1: 132 bytes object code size  0.0/0.0/[0.0]
Matrix Compiler2: off  [0.0]/0.0/0.1

